examples/case/garver.m

function mpc = garver

mpc.version = '2';
%% system MVA base
mpc.baseMVA = 100.0;
%% bus data

%bus type
%PQ bus = 1
%PV bus = 2
%reference bus = 3
%  bus_i type Pd   Qd  Gs   Bs area	Vm	Va	baseKV	zone	Vmax	Vmin
mpc.bus = [
	1	3	  80	16	0	0	1	1	 0	230	    1	1.05	0.95;
	2	1	 240	48	0	0	1	1	 0	230	    1	1.05	0.95;
	3	2	  40	8	0	0	1	1    0	230  	1	1.05	0.95;
	4	1	 160	32	0	0	1	1	 0	230	    1	1.05	0.95;
	5	1	 240	48	0	0	1	1	 0	230	    1	1.05	0.95;
	6	2	   0	0	0	0	1	1    0	230	    1	1.05	0.95;
];


%%%% PARA PRUEBAS CON EL MODELO AC %%%%

mpc.gen = [
1	152.82	0	48      -10 	0.997	100	     1 160	   0;   %50
3	322.22	0	101 	-10 	 1.009	100	   1 370	   0;   %165
6	297.13	0	183 	-10 	 1.048	100	    1 610	   0;   %545
];


mpc.branch = [
	1	 2	   0.040 	 0.40  0.00  120.0   0.0	 0.0      0.0       0.0      1     -30	  30;  
	1	 4	   0.060 	 0.60  0.00	 100.0   0.0	 0.0      0.0       0.0      1     -30	  30; 
	1	 5     0.020 	 0.20  0.00	 120.0   0.0	 0.0      0.0       0.0      1     -30	  30; 
	2	 3	   0.020     0.20  0.00	 120.0   0.0	 0.0      0.0       0.0      1     -30    30;
	2	 4	   0.040     0.40  0.00	 120.0   0.0	 0.0      0.0       0.0      1     -30    30;      
	2	 6	   0.015     0.15  0.00	 240.0   0.0	 0.0      0.0       0.0      1     -15	  15;
	3	 5	   0.0066667     0.0666667  0.00	 360.0   0.0	 0.0      0.0       0.0      1     -10	  10;
	4	 6	   0.015     0.15  0.00	 240.0   0.0	 0.0      0.0       0.0      1     -15	  15;
    ]; 

	

%column_names%	f_bus	t_bus	br_r	br_x	br_b	rate_a	rate_b	rate_c	tap	shift	br_status	angmin	angmax	construction_cost
mpc.ne_branch = [
	1	 2	   0.040 	 0.40  0.00  120.0   0.0	 0.0    0.0     0.0    1     -30	30    40;
  	1	 3	   0.038	 0.38  0.00	 120.0   0.0	 0.0    0.0     0.0    1     -30	30    38;
  	1	 4	   0.060 	 0.60  0.00	 100.0   0.0	 0.0    0.0     0.0    1     -30	30    60;
 	1	 5     0.020 	 0.20  0.00	 120.0   0.0	 0.0    0.0     0.0    1     -30	30    20;
 	1	 6	   0.068     0.68  0.00	  90.0   0.0	 0.0    0.0     0.0    1     -30	30    68;
	2	 3	   0.020     0.20  0.00	 120.0   0.0	 0.0    0.0     0.0    1     -30 	30	  20;
 	2	 4	   0.040     0.40  0.00	 120.0   0.0	 0.0    0.0     0.0    1     -30	30    40;   
	2	 5	   0.031     0.31  0.00	 120.0   0.0     0.0    0.0     0.0    1     -30	30    31;
	2	 6	   0.030     0.30  0.00	 120.0   0.0	 0.0    0.0     0.0    1     -30	30    30;    
	3	 4	   0.059     0.59  0.00	 102.0   0.0	 0.0    0.0     0.0    1     -30	30    59;
	3	 5	   0.020     0.20  0.00	 120.0   0.0	 0.0    0.0     0.0    1     -30	30    20;        
    3	 6	   0.048     0.48  0.00	 120.0   0.0	 0.0    0.0     0.0    1     -30	30    48;
    4	 5	   0.063     0.63  0.00	  95.0   0.0	 0.0    0.0     0.0    1     -30	30    63;        
    4	 6	   0.030     0.30  0.00	 120.0   0.0	 0.0    0.0     0.0    1     -30	30    30;
    5	 6	   0.061     0.61  0.00	  98.0   0.0	 0.0    0.0     0.0    1     -30	30    61;
	]; 


	mpc.gencost = [
	2	0	0	3 	0 11 0.0001;%%1
	2	0	0	3	0 10 0.0001 ;%%2
	2	0	0	3   0 11 0.0001;%%3
];